/*--------------------------------*- C++ -*----------------------------------*\
| =========                 |                                                 |
| \\      /  F ield         | OpenFOAM: The Open Source CFD Toolbox           |
|  \\    /   O peration     | Version:  2.2.1                                 |
|   \\  /    A nd           | Web:      www.OpenFOAM.org                      |
|    \\/     M anipulation  |                                                 |
\*---------------------------------------------------------------------------*/
FoamFile
{
    version     2.0;
    format      ascii;
    class       dictionary;
    object      fvSolution;
}
// * * * * * * * * * * * * * * * * * * * * * * * * * * * * * * * * * * * * * //


solvers
{
    "flux.*"
    { 
      

        solver          PCG;
        preconditioner  FDIC;
        tolerance       1e-6;
        relTol          1e-2;
    }

    "prec.*"
    {
        solver          PBiCGStab;
        preconditioner  DILU;
        tolerance       1e-6;
        relTol          1e-2;
    }
}

neutronTransport
{
    integralPredictor           false; // integral neutron balance made at each time step to predict fluxes at next step (can be unstable)
    implicitPredictor           false;
    ROMAcceleration             false;
    aitkenAcceleration          false;
    neutronIterationResidual    0.000001; // required accuracy for the coupling of different energy groups
    maxNeutronIterations        50; // up to 3-400 if no acceleration techniques 
}



// ************************************************************************* //
